ELEMENTS
H O C N HE AR
END
SPECIES
! 124 especes

! Biradicals :
B1O
B2CO
B3C
B4CH
B5CH2
B6CH2

! Primary molecules :
! Reactants:
H2
H2O
O2
H2O2
CH4
HCHO
CH3OH
CO2
CH3OOH
C2H2T
C2H4Z
C2H6
CH2COZ
CH3CHO
C2H5OH
C2H5OOH
CH3COOOH
C3H6Y
C3H8
C4H8Y
C4H10
C2H5CHO
C3H7OH
C2H6CO
C3H8CO
C4H6Z2
C2H3CHOZ
C3H6O3KP
C4H8O3KP
C4H10O2P
C3H6O2PZ
C4H8OA
C3H8O2P
! Secondary molecules :
C5H10Z
C6H12Z
C5H10OA
C3H6OLY
C3H6O2PY
C4H6OAY
C4H8OLY
C6H10Y2
C7H12Y2
C4H8O2PY
C5H8OAY
C5H10OLY
C8H14Y2

! Cyclic primary molecules :
C2H4OE#3
C3H6OE#3
C3H6OE#4
C4H8OE#3
C4H8OE#4
C4H8OE#5

! Cyclic secondary molecules :
C5H10OE#3
C6H12OE#3
C4H6O4E#4KP
C4H6O4E#5KP

! Free radicals :
R1H   !   .h
R2OH   !   .oh
R3OOH   !   .o/oh
R4CH3   !   .ch3
R5CHO   !   .ch//o
R6CH2OH   !   .ch2/oh
R7CH3O   !   .o/ch3
R8CH3OO   !   .o/o/ch3
R9C2HT   !   .c///ch
R10C2H3V   !   .ch//ch2
R11C2H5   !   .ch2/ch3
R12CHCOV   !   .ch//c//o
R13CH2CHO   !   .ch2/ch//o
R14CH3CO   !   .c(//o)/ch3
R15C2H5O   !   .o/ch2/ch3
R16C2H4OOH   !   .ch2/ch2/o/oh
R17C2H5OO   !   .o/o/ch2/ch3
R18CH3COOO   !   .o/o/c(//o)/ch3
R19C3H7   !   .ch2/ch2/ch3
R20C4H9   !   .ch2/ch2/ch2/ch3
R21CH3OCO   !   .c(//o)/o/ch3
R22CO2H   !   .c(//o)/oh
R23C2H3O2B   !   .ch2/c(//o)/oh
R24C2H4OH   !   .ch2/ch2/oh
R25C2H4OH   !   .ch(/oh)/ch3
R26C4H9   !   .ch(/ch3)/ch2/ch3
R27C3H7O2U   !   .o/o/ch2/ch2/ch3
R28C4H9O2U   !   .o/o/ch2/ch2/ch2/ch3
R29C4H9O2U   !   .o/o/ch(/ch3)/ch2/ch3
R30C3H7O2P   !   .ch(/ch3)/ch2/o/oh
R31C3H7O2P   !   .ch2/ch2/ch2/o/oh
R32C4H9O2P   !   .ch(/ch2/o/oh)/ch2/ch3
R33C4H9O2P   !   .ch(/ch3)/ch2/ch2/o/oh
R34C4H9O2P   !   .ch2/ch2/ch2/ch2/o/oh
R35C4H9O2P   !   .ch2/ch(/o/oh)/ch2/ch3
R36C4H9O2P   !   .ch(/ch3)/ch(/o/oh)/ch3
R37C4H9O2P   !   .ch2/ch2/ch(/o/oh)/ch3
R38C3H7O4UP   !   .o/o/ch(/ch3)/ch2/o/oh
R39C3H7O4UP   !   .o/o/ch2/ch2/ch2/o/oh
R40C4H9O4UP   !   .o/o/ch(/ch2/o/oh)/ch2/ch3
R41C4H9O4UP   !   .o/o/ch(/ch3)/ch2/ch2/o/oh
R42C4H9O4UP   !   .o/o/ch2/ch2/ch2/ch2/o/oh
R43C4H9O2P   !   .ch(/o/oh)/ch2/ch2/ch3
R44C4H9O4UP   !   .o/o/ch2/ch(/o/oh)/ch2/ch3
R45C4H9O4UP   !   .o/o/ch(/ch3)/ch(/o/oh)/ch3
R46C4H9O4UP   !   .o/o/ch2/ch2/ch(/o/oh)/ch3
R47C4H9O4UP   !   .o/o/ch(/o/oh)/ch2/ch2/ch3
 !Cyclic free radicals:

! lumped Free radicals :
RC3H5Y
RC4H7Y
RC3H5O
RC4H7O
RC3H5O3
RC4H7O3
RC5H9O
RC5H9O3
! lumped Cyclic free radicals :
C4H7OE#4
C4H7OE#5
C4H7O3E#4U
C4H7O3E#5U
C4H7O3E#4P
C4H7O3E#5P
C4H7O5E#4UP
C4H7O5E#5UP

N2
HE
AR
END

THERMO ALL
   300.000  1000.000  5000.000
N2      Ranzi          0N   2C   0H   0O   0G  0300.00   5000.00  1000.00      1
 2.9266400E+00  1.4879770E-03 -5.6847603E-07  1.0097040E-10 -6.7533509E-15     2
-922.76760E+00  5.9805290E+00  3.2986770E+00  1.4082399E-03 -3.9632218E-06     3
 5.6415148E-09 -2.4448540E-12 -1020.9000E00   3.9503720E+00                    4
HE      Ranzi          0HE  2C   0H   0O   0G  0300.00   5000.00  1000.00      1
 3.1250000E+00 -1.4062505E-03  9.3750049E-07 -1.5625008E-10  0.0000000E+00     2
-940.68700E+00 -2.4124130E+00  2.5000000E+00  0.0000000E+00  0.0000000E+00     3
 0.0000000E+00  0.0000000E+00 -745.37510E+00  0.9153489E+00                    4
AR                120186AR  1               G  0300.00   5000.00  1000.00      1
 0.02500000E+02 0.00000000E+00 0.00000000E+00 0.00000000E+00 0.00000000E+00    2
-0.07453750E+04 0.04366001E+02 0.02500000E+02 0.00000000E+00 0.00000000E+00    3
 0.00000000E+00 0.00000000E+00-0.07453750E+04 0.04366001E+02                   4
B1O                     O   1               G  0300.00   5000.00  1000.00      1
 0.02542060E+02-0.02755062E-03-0.03102803E-07 0.04551067E-10-0.04368052E-14    2
 0.02923080E+06 0.04920308E+02 0.02946429E+02-0.01638166E-01 0.02421032E-04    3
-0.01602843E-07 0.03890696E-11 0.02914764E+06 0.02963995E+02                   4
B2CO                    C   1O   1          G  0300.00   5000.00  1000.00      1
 0.03025078E+02 0.01442689E-01-0.05630828E-05 0.01018581E-08-0.06910952E-13    2
-0.01426835E+06 0.06108218E+02 0.03262452E+02 0.01511941E-01-0.03881755E-04    3
 0.05581944E-07-0.02474951E-10-0.01431054E+06 0.04848897E+02                   4
B3C                     C   1               G  0300.00   5000.00  1000.00      1
 0.02602087E+02-0.01787081E-02 0.09087041E-06-0.01149933E-09 0.03310844E-14    2
 0.08542154E+06 0.04195177E+02 0.02498585E+02 0.08085777E-03-0.02697697E-05    3
 0.03040729E-08-0.01106652E-11 0.08545878E+06 0.04753459E+02                   4
B4CH                    C   1H   1          G  0300.00   5000.00  1000.00      1
 0.02196223E+02 0.02340381E-01-0.07058201E-05 0.09007582E-09-0.03855040E-13    2
 0.07086723E+06 0.09178373E+02 0.03200202E+02 0.02072876E-01-0.05134431E-04    3
 0.05733890E-07-0.01955533E-10 0.07045259E+06 0.03331588E+02                   4
B5CH2       CH2t        C   1H   2          G  0300.00   5000.00  1000.00      1
 0.03636408E+02 0.01933057E-01-0.01687016E-05-0.01009899E-08 0.01808256E-12    2
 0.04534134E+06 0.02156561E+02 0.03762237E+02 0.01159819E-01 0.02489585E-05    3
 0.08800836E-08-0.07332435E-11 0.04536791E+06 0.01712578E+02                   4
B6CH2       CH2s        C   1H   2          G  0300.00   5000.00  1000.00      1
 0.03552889E+02 0.02066788E-01-0.01914116E-05-0.01104673E-08 0.02021350E-12    2
 0.04984975E+06 0.01686570E+02 0.03971265E+02-0.01699089E-02 0.01025369E-04    3
 0.02492551E-07-0.01981266E-10 0.04989368E+06 0.05753207E+00                   4
H2                      C   0H   2O   0     G  0300.00   5000.00  1000.00      1
 2.50170E+00    1.78083E-03   -7.80013E-07    1.48437E-10   -1.03401E-14       2
-6.86891E+02    1.25553E+00    3.43853E+00    1.44314E-04   -1.08191E-07       3
 2.16839E-10   -5.54307E-14   -1.03749E+03   -3.92682E+00                      4
H2O                     C   0H   2O   1     G  0300.00   5000.00  1000.00      1
 2.68039E+00    3.09623E-03   -9.31393E-07    1.34865E-10   -7.70007E-15       2
-2.99236E+04    6.77857E+00    3.97559E+00   -4.41834E-04    2.45596E-06       3
-1.24431E-09    2.26702E-13   -3.02810E+04    7.71523E-02                      4
O2                      C   0H   0O   2     G  0300.00   5000.00  1000.00      1
 3.19345E+00    1.56657E-03   -6.90657E-07    1.32082E-10   -9.23577E-15       2
-1.05228E+03    5.96618E+00    3.08809E+00    1.60342E-03   -5.34550E-07       3
 2.80793E-11    2.98899E-15   -9.93828E+02    6.61069E+00                      4
H2O2                    C   0H   2O   2     G  0300.00   5000.00  1014.00      1
 5.4773972E+00  0.26651844E-02-0.69380576E-06 0.91391290E-10-0.49374605E-14    2
-1.8283678E+04 -4.3962604E+00  0.25265224E+01 0.11391788E-01-0.89037285E-05    3
 0.24531213E-08 0.71861218E-13-0.17565287E+05 0.10559545E+02                   4
CH4                     C   1H   4O   0     G  0300.00   5000.00  1015.00      1
 1.6080833E+00  1.03080E-02   -3.71228E-06    6.14185E-10   -3.86748E-14       2
-1.0063071E+04  1.0071469E+01  2.31954E+00    6.54738E-03   -7.48051E-07       3
 2.60912E-09   -1.95537E-12   -9.99764E+03    7.24965E+00                      4
HCHO                    C   1H   2O   1     G  0300.00   5000.00  1017.00      1
 2.9042036E+00  6.64407E-03   -2.45282E-06    4.12836E-10   -2.63040E-14       2
-1.5272660E+04  7.5065143E+00  2.41049E+00    7.02041E-03   -4.22947E-06       3
 4.40116E-09   -2.12647E-12   -1.49519E+04    1.06246E+01                      4
CH3OH                   C   1H   4O   1     G  0300.00   5000.00  1000.00      1
 3.2627246E+00  1.05432E-02   -3.54918E-06    5.58743E-10   -3.39236E-14       2
-2.5878233E+04  6.7000162E+00  1.85957E+00    1.25312E-02   -4.47107E-06       3
 1.73293E-09   -8.71066E-13   -2.52879E+04    1.46835E+01                      4
CO2                     C   1H   0O   2     G  0300.00   5000.00  1005.00      1
 4.1987614E+00  0.34902790E-02-0.14128319E-05 0.25480168E-09-0.17105678E-13    2
-4.8815925E+04  5.6029915E-01  0.22576122E+01 0.95094619E-02-0.73198071E-05    3
 0.20577067E-08 0.10320530E-13-0.48371590E+05 0.10295759E+02                   4
CH3OOH                  C   1H   4O   2     G  0300.00   5000.00  1000.00      1
 6.3680096E+00  1.07372E-02   -3.68666E-06    5.88827E-10   -3.61266E-14       2
-1.8426159E+04 -6.0734210E+00  3.09218E+00    1.80223E-02   -7.11862E-06       3
-1.47978E-09    1.45517E-12   -1.74300E+04    1.13028E+01                      4
C2H2T                   C   2H   2O   0     G  0300.00   5000.00  1000.00      1
 4.4367751E+00  0.05376039e-01-0.01912817e-04 0.03286379e-08-0.02156710e-12    2
 2.5667661E+04 -2.8003706E+00  0.02013562e+02 0.01519045e+00-0.01616319e-03    3
 0.09078992e-07-0.01912746e-10 0.02612444e+06 0.08805378e+02                   4
C2H4Z                   C   2H   4O   0     G  0300.00   5000.00  1090.00      1
 3.1468116E-01  1.67299E-02   -6.80909E-06    1.22922E-09   -8.23928E-14       2
 5.7249923E+03  2.0362721E+01  1.31810E+00    1.44460E-02   -2.74335E-06       3
-3.10835E-09    1.52772E-12    5.26817E+03    1.47233E+01                      4
C2H6                    C   2H   6O   0     G  0300.00   5000.00  1250.00      1
 3.1208877E-01  2.11928E-02   -8.08560E-06    1.39339E-09   -9.03005E-14       2
-1.0989168E+04  2.0203765E+01  9.75454E-01    1.88110E-02   -1.46453E-06       3
-6.38247E-09    2.84067E-12   -1.13111E+04    1.65514E+01                      4
CH2COZ                  C   2H   2O   1     G  0300.00   5000.00  1000.00      1
 5.35267E+00    6.94209E-03   -2.50061E-06    4.13231E-10   -2.59692E-14       2
-7.81007E+03   -3.80283E+00    2.99539E+00    1.23540E-02   -4.06499E-06       3
-3.34608E-09    2.24152E-12   -7.15097E+03    8.53716E+00                      4
CH3CHO                  C   2H   4O   1     G  0300.00   5000.00  1000.00      1
 4.2598129E+00  0.13486034E-01-0.49183418E-05 0.82515045E-09-0.52694343E-13    2
-2.2171378E+04  2.9348453E+00  0.26969113E+01 0.12334284E-01 0.56746453E-05    3
-0.10870704E-07 0.37648248E-11-0.21403137E+05 0.12530482E+02                   4
C2H5OH                  C   2H   6O   1     G  0300.00   5000.00  1000.00      1
 5.6164565E+00  1.59916E-02   -5.36799E-06    8.43422E-10   -5.11406E-14       2
-3.1041093E+04 -3.5594338E+00  9.39858E-01    2.61811E-02   -9.25134E-06       3
-3.45825E-09    2.62098E-12   -2.96238E+04    2.12634E+01                      4
C2H5OOH                 C   2H   6O   2     G  0300.00   5000.00  1000.00      1
 8.8514770E+00  1.46991E-02   -4.66630E-06    7.03129E-10   -4.13262E-14       2
-2.3452357E+04 -1.7367763E+01  2.03266E+00    3.20310E-02   -1.79773E-05       3
 2.38766E-09    1.07206E-12   -2.15063E+04    1.82187E+01                      4
CH3COOOH                C   2H   4O   3     G  0300.00   5000.00  1000.00      1
 7.8670144E+00  1.42400E-02   -4.81648E-06    7.62396E-10   -4.65514E-14       2
-4.3975652E+04 -9.6455347E+00  2.19569E-01    3.53131E-02   -2.24276E-05       3
 3.22888E-09    1.67243E-12   -4.19548E+04    2.96617E+01                      4
C3H6Y                  0C   3H   6          G  0300.00   5000.00  1000.00      1
 4.9872200E+00  .17638993E-01 -.62266308E-05  .10151433E-08 -.63235977E-13     2
-2.5513286E+02 -2.3657628E+00  .55598283E+00  .27091531E-01 -.10752104E-04     3
-.97539210E-09  .14314721E-11  .11570190E+04  .21344173E+02                    4
C3H8                   0C   3H   8          G  0300.00   5000.00  1000.00      1
 5.4507891E+00  .22160569E-01  -.77296281E-05 .12495476E-08 -.77377605E-13     2
-1.5616278E+04 -6.1404564E+00  -.31831896E+00 .34746405E-01 -.12885018E-04     3
-.35057037E-08  .30165358E-11  -.13851594E+05 .24514595E+02                    4
C4H6Z2                 0C   4H   6          G  0300.00   5000.00  1000.00      1
 .80518456E+01  .17540889E-01  -.61760657E-05 .10047656E-08 -.62479542E-13     2
 .95697949E+04 -.18611710E+02  -.29224473E+00 .38725201E-01 -.16706719E-04     3
-.81080902E-08  .67421541E-11   .11749236E+05 .24444702E+02                    4
C4H8Y                  0C   4H   8          G  0300.00   5000.00  1000.00      1
 9.2846956E+00  0.19871462E-01-0.65713975E-05 0.10258888E-08-0.62160394E-13    2
-4.6494723E+03 -2.4153237E+01 -0.25869742E+00 0.41475497E-01-0.21317686E-04    3
 0.27918821E-08 0.85749311E-12-0.16180958E+04 0.26720718E+02                   4
C4H10                  0C   4H  10          G  0300.00   5000.00  1000.00      1
 7.6947069E+00  .27767614E-01 -.96156327E-05  .15456056E-08 -.95281279E-13     2
-1.9406615E+04 -1.6133800E+01  .59979584E-01  .44005580E-01 -.15532127E-04     3
-.52806315E-08  .40442116E-11 -.17040045E+05  .24565849E+02                    4
C2H3CHOZ               0C   3H   4O   1     G  0300.00   5000.00  1000.00      1
  .12311886E+02  .12961588E-01 -.61774654E-05  .12501405E-08 -.91169971E-13    2
 -.15218951E+05 -.42303177E+02  .93137437E+00  .35574418E-01 -.33347264E-04    3
  .28398034E-07 -.11395644E-10 -.10614329E+05  .21059492E+02                   4
C2H5CHO                0C   3H   6O   1     G  0300.00   5000.00  1000.00      1
 6.9979400E+00   .18013448E-01 -.62295217E-05  .10005839E-08 -.61661722E-13    2
-2.5678625E+04 -9.4601872E+00   .28277023E+01  .25430365E-01 -.61913220E-05    3
 -.50245177E-08  .26785609E-11 -.24271348E+05  .13234089E+02                   4
C3H7OH                 0C   3H   8O   1     G  0300.00   5000.00  1000.00      1
 7.1550134E+00   .22466624E-01 -.76292372E-05  .12097231E-08 -.73884075E-13    2
-3.4674319E+04 -9.4533205E+00   .12350693E+01  .34453284E-01 -.10589133E-04    3
 -.54856804E-08  .35146994E-11 -.32804938E+05  .22268148E+02                   4
C2H6CO                 0C   3H   6O   1     G  0300.00   5000.00  1000.00      1
 5.9760363E+00   .19679097E-01 -.70154574E-05  .11513579E-08 -.72035416E-13    2
-2.9341093E+04 -5.3765272E+00   .14577827E+01  .28063715E-01 -.90218518E-05    3
 -.24536706E-08  .16730232E-11 -.27794104E+05  .19218454E+02                   4
C3H8CO                 0C   4H   8O   1     G  0300.00   5000.00  1000.00      1
 8.7691955E+00   .24174010E-01 -.83446403E-05  .13376648E-08 -.82271822E-13    2
-3.2998668E+04 -1.7683408E+01   .27316518E+01  .35815358E-01 -.11085016E-04    3
 -.44516226E-08  .28435873E-11 -.31006189E+05  .14949604E+02                   4
R1H                     C   0H   1O   0     G  0300.00   5000.00  1000.00      1
 2.51382E+00    4.09189E-06   -2.41082E-09    5.71874E-13   -4.70917E-17       2
 2.54654E+04   -5.34746E-01    2.51984E+00   -2.59920E-05    6.27898E-08       3
-6.29951E-11    2.23973E-14    2.54641E+04   -5.63259E-01                      4
R2OH                    C   0H   1O   1     G  0300.00   5000.00  1000.00      1
 3.04144E+00    6.51385E-04   -1.91218E-08   -1.04196E-13    4.00330E-17       2
 3.90412E+03    4.81762E+00    3.67780E+00   -2.14153E-04    5.70231E-08       3
 1.71404E-10   -1.84629E-14    3.63597E+03    1.19670E+00                      4
R3OOH                   C   0H   1O   2     G  0300.00   5000.00  1000.00      1
 4.72022E+00    1.38622E-03   -1.68457E-07    1.05843E-11   -2.40717E-16       2
-2.41430E+02   -6.85165E-01    1.84854E+00    1.07988E-02   -8.54635E-06       3
 4.18415E-10    1.44074E-12    3.26446E+02    1.34319E+01                      4
R4CH3                   C   1H   3O   0     G  0300.00   5000.00  1022.00      1
 2.9723909E+00  0.62323902E-02-0.22190404E-05 0.36577827E-09-0.23059057E-13    2
 1.5991251E+04  4.3951629E+00  0.30266473E+01 0.45351572E-02 0.68535263E-06    3
-0.10839243E-08 0.15497636E-12 0.16144411E+05 0.47042460E+01                   4
R5CHO                   C   1H   1O   1     G  0300.00   5000.00  1000.00      1
 3.6073097E+00  0.28745262E-02-0.98788814E-06 0.15840323E-09-0.97735176E-14    2
 3.2342028E+03  5.4449727E+00  0.35340273E+01 0.20234731E-02 0.51834081E-06    3
-0.37246076E-09-0.60802857E-13 0.33738574E+04 0.62388401E+01                   4
R6CH2OH                 C   1H   3O   1     G  0300.00   5000.00  1000.00      1
 0.59332314E+01 0.36190501E-02-0.61752752E-06 0.59083634E-10-0.25698620E-14    2
-0.36182065E+04-0.61733055E+01 0.21966424E+01 0.12963202E-01-0.12844380E-04    3
 0.99145598E-08-0.32231225E-11-0.22978342E+04 0.13927387E+02                   4
R7CH3O                  C   1H   3O   1     G  0300.00   5000.00  1000.00      1
 6.45804E+00    3.22182E-03   -5.09801E-07    4.41966E-11   -1.69366E-15       2
-8.23233E+02   -1.22475E+01    2.40571E-01    1.87747E-02   -2.13180E-05       3
 1.81151E-08   -6.61230E-12    1.35827E+03    2.11815E+01                      4
R8CH3OO                 C   1H   3O   2     G  0300.00   5000.00  1000.00      1
 9.7570048E+00  3.04276E-03   -4.67054E-07    3.87833E-11   -1.39425E-15       2
-1.9046130E+03 -2.6874936E+01  1.48937E+00    2.40776E-02   -2.38748E-05       3
 1.51535E-08   -4.47557E-12    7.64340E+02    1.69852E+01                      4
R9C2HT                  C   2H   1O   0     G  0300.00   5000.00  1000.00      1
 0.40437493E+01 0.36123355E-02-0.95946029E-06 0.12793372E-09-0.69526612E-14    2
 0.65947961E+05 0.19703522E+01 0.17718196E+01 0.17070146E-01-0.20073590E-04    3
 0.88779526E-08-0.83304159E-12 0.65840078E+05 0.11053392E+02                   4
R10C2H3V                C   2H   3O   0     G  0300.00   5000.00  1000.00      1
 5.0727921E+00  0.54012556E-02-0.12119358E-05 0.14271406E-09-0.71272656E-14    2
 3.3707740E+04 -3.0985527E+00  0.12316554E+01 0.14659354E-01-0.95136020E-05    3
 0.36466949E-08-0.62640339E-12 0.34934910E+05 0.17314640E+02                   4
R11C2H5                 C   2H   5O   0     G  0300.00   5000.00  1000.00      1
 3.50261E+00    1.26143E-02   -3.65730E-06    5.16642E-10   -2.90469E-14       2
 1.24032E+04    5.44236E+00    5.46580E-01    2.04368E-02   -1.16694E-05       3
 4.82541E-09   -1.19281E-12    1.32743E+04    2.09001E+01                      4
R12CHCOV                C   2H   1O   1     G  0300.00   5000.00  1000.00      1
 0.06758073E+02 0.02000400E-01-0.02027607E-05-0.01041132E-08 0.01965165E-12    2
 0.01901513E+06-0.09071262E+02 0.05047965E+02 0.04453478E-01 0.02268283E-05    3
-0.01482095E-07 0.02250742E-11 0.01965892E+06 0.04818439E+01                   4
R13CH2CHO               C   2H   3O   1     G  0300.00   5000.00  1000.00      1
 9.2088691E+00  0.36510697E-02-0.64394158E-06 0.63296798E-10-0.28066517E-14    2
-7.1802194E+02 -2.4495662E+01  0.13357744E+01 0.22153886E-01-0.20867239E-04    3
 0.14634303E-07-0.49802371E-11 0.19974985E+04 0.17885937E+02                   4
R14CH3CO                C   2H   3O   1     G  0300.00   5000.00  1000.00      1
 0.10937184E+02 0.54414349E-03-0.15865876E-07-0.23107392E-12 0.46252823E-16    2
-0.60733809E+04-0.33342125E+02 0.38579266E+01 0.54023149E-02 0.94996667E-05    3
-0.93490025E-08 0.20667194E-11-0.26711941E+04 0.85433064E+01                   4
R15C2H5O                C   2H   5O   1     G  0300.00   5000.00  1000.00      1
 8.79327E+00    8.37917E-03   -1.93446E-06    2.29371E-10   -1.13191E-14       2
-6.03107E+03   -2.23324E+01   -6.00093E-01    3.17670E-02   -2.42586E-05       3
 1.08137E-08   -2.26856E-12   -3.08491E+03    2.73650E+01                      4
R16C2H4OOH              C   2H   5O   2     G  0300.00   5000.00  1000.00      1
 9.8523206E+00  0.10040573E-01-0.24779133E-05 0.31358741E-09-0.16472921E-13    2
 7.9572554E+02 -2.0532601E+01  0.11050612E+01 0.41490670E-01-0.47184953E-04    3
 0.30393178E-07-0.80918614E-11 0.28154634E+04 0.22787066E+02                   4
R17C2H5OO               C   2H   5O   2     G  0300.00   5000.00  1000.00      1
 1.1317384E+01  8.28625E-03   -1.86203E-06    2.18209E-10   -1.07868E-14       2
-6.9786390E+03 -3.2893885E+01  6.72056E-01    3.62757E-02   -3.00008E-05       3
 1.38479E-08   -2.84583E-12   -3.78886E+03    2.28869E+01                      4
R18CH3COOO              C   2H   3O   3     G  0300.00   5000.00  1000.00      1
 0.58370619E+01 0.14517937E-01-0.45853781E-05 0.69238965E-09-0.40972888E-13    2
-0.24636797E+05 0.35686111E+00-0.10923432E+01 0.39162144E-01-0.33321889E-04    3
 0.13345456E-07-0.16804813E-11-0.23286021E+05 0.34139729E+02                   4
R19C3H7                 C   3H   7O   0     G  0300.00   5000.00  1000.00      1
 4.9242141E+00  1.95492E-02   -6.09862E-06    9.08986E-10   -5.30994E-14       2
 9.7114242E+03  1.3299367E-01 -9.97049E-01    4.22637E-02   -3.67683E-05       3
 1.83985E-08   -3.66617E-12    1.08489E+04    2.87294E+01                      4
R20C4H9                 C   4H   9O   0     G  0300.00   5000.00  1000.00      1
 7.0528219E+00  2.53221E-02   -8.04531E-06    1.21383E-09   -7.14512E-14       2
 5.5184300E+03 -9.1858705E+00 -5.06119E-01    5.07221E-02   -3.74398E-05       3
 1.45966E-08   -1.90079E-12    7.19571E+03    2.83231E+01                      4
R21CH3OCO               C   2H   3O   2     G  0300.00   5000.00  1000.00      1
 9.73659E+00    7.42432E-03   -2.65641E-06    4.25031E-10   -2.51824E-14       2
-2.36015E+04   -2.36353E+01    4.16215E+00    1.38037E-02   -3.08486E-07       3
-4.56430E-09    1.46909E-12   -2.10130E+04    8.64301E+00                      4
R22CO2H                 C   1H   1O   2     G  0300.00   5000.00  1000.00      1
 0.28981850E+01 0.68517160E-02 0.10166207E-05-0.48945155E-08 0.20869597E-11    2
-0.24374113E+05 0.12058191E+02 0.52000489E+01 0.33457270E-02-0.66695446E-06    3
 0.71988131E-10-0.33980889E-14-0.25185346E+05-0.62765884E+00                   4
R23C2H3O2B              C   2H   3O   2     G  0300.00   5000.00  1000.00      1
 0.93246222E+01 0.69435383E-02-0.16960130E-05 0.21230508E-09-0.11030391E-13    2
-0.33662379E+05-0.23251938E+02 0.18895344E+00 0.34251921E-01-0.33446948E-04    3
 0.17838767E-07-0.40593453E-11-0.31194209E+05 0.23558701E+02                   4
R24C2H4OH      T 4/83   C   2H   5O   10   0G   300.00   5000.0   1000.00      1
 0.75944014E+01 0.93229339E-02-0.30303854E-05 0.43216319E-09-0.21970039E-13    2
-0.57727852E+04-0.13968735E+02 0.14019508E+01 0.21543175E-01-0.22326512E-05    3
-0.14464092E-07 0.80488420E-11-0.38464519E+04 0.19135818E+02                   4
R25C2H4OH      T 4/83   C   2O   1H   5    0G   300.000  5000.00  1000.0       1
 0.67665424E+01 0.11634436E-01-0.37790651E-05 0.53828875E-09-0.27315345E-13    2
-0.56092969E+04-0.93980442E+01 0.24813328E+01 0.16790036E-01 0.37755499E-05    3
-0.13923497E-07 0.60095193E-11-0.40120054E+04 0.14581622E+02-0.25172860E+04    4
C4H8Y                   C   4H   8O   0     G  0300.00   5000.00  1000.00      1
 0.66259856E+01 0.24037426E-01-0.85048041E-05 0.13961984E-08-0.87795283E-13    2
-0.49348359E+04-0.10225971E+02 0.13099357E+01 0.34782715E-01-0.12483845E-04    3
-0.20726512E-08 0.19231736E-11-0.32000645E+04 0.18393772E+02                   4
C2H3CHOZ                C   3H   4O   1     G  0300.00   5000.00  1000.00      1
 0.54758081E+01 0.20323459E-01-0.91444454E-05 0.17777224E-08-0.12597597E-12    2
-0.11801455E+05-0.32571678E+01 0.32142591E-01 0.27851876E-01-0.13119045E-04    3
 0.61531744E-08-0.26709342E-11-0.93820029E+04 0.27982979E+02                   4
C3H6O3KP                C   3H   6O   3     G  0300.00   5000.00  1000.00      1
 0.54758081E+01 0.20323459E-01-0.91444454E-05 0.17777224E-08-0.12597597E-12    2
-0.11801455E+05-0.32571678E+01 0.32142591E-01 0.27851876E-01-0.13119045E-04    3
 0.61531744E-08-0.26709342E-11-0.93820029E+04 0.27982979E+02                   4
C4H8O3KP                C   4H   8O   3     G  0300.00   5000.00  1000.00      1
 0.54758081E+01 0.20323459E-01-0.91444454E-05 0.17777224E-08-0.12597597E-12    2
-0.11801455E+05-0.32571678E+01 0.32142591E-01 0.27851876E-01-0.13119045E-04    3
 0.61531744E-08-0.26709342E-11-0.93820029E+04 0.27982979E+02                   4
C4H10O2P                C   4H  10O   2     G  0300.00   5000.00  1000.00      1
 0.13364201E+02 0.26301583E-01-0.87335775E-05 0.13712343E-08-0.83620455E-13    2
-0.33817000E+05-0.38009354E+02 0.83388466E+00 0.60939860E-01-0.39002498E-04    3
 0.78341813E-08 0.16028346E-11-0.30469209E+05 0.26467260E+02                   4
C3H6O2PZ                C   3H   6O   2     G  0300.00   5000.00  1000.00      1
 0.10439779E+02 0.17573746E-01-0.60961356E-05 0.98704911E-09-0.61481954E-13    2
-0.11944713E+05-0.24793179E+02 0.36786113E+01 0.32269310E-01-0.10301906E-04    3
-0.76882758E-08 0.48891334E-11-0.99506963E+04 0.10972757E+02                   4
C4H8OA                  C   4H   8O   1     G  0300.00   5000.00  1000.00      1
 0.88575449E+01 0.24262726E-01-0.84655985E-05 0.13756131E-08-0.85858898E-13    2
-0.29481684E+05-0.17477516E+02 0.66631293E+00 0.47731180E-01-0.32993110E-04    3
 0.12173355E-07-0.16540502E-11-0.27234639E+05 0.24693617E+02                   4
C3H8O2P                 C   3H   8O   2     G  0300.00   5000.00  1000.00      1
 0.10595881E+02 0.21092908E-01-0.69577177E-05 0.10872773E-08-0.66088445E-13    2
-0.27545504E+05-0.24426392E+02 0.18213568E+01 0.42758811E-01-0.20479554E-04    3
-0.19162016E-08 0.35641871E-11-0.25071838E+05 0.21374474E+02                   4
C5H10Z                  C   5H  10O   0     G  0300.00   5000.00  1000.00      1
 0.10595881E+02 0.21092908E-01-0.69577177E-05 0.10872773E-08-0.66088445E-13    2
-0.27545504E+05-0.24426392E+02 0.18213568E+01 0.42758811E-01-0.20479554E-04    3
-0.19162016E-08 0.35641871E-11-0.25071838E+05 0.21374474E+02                   4
C6H12Z                  C   6H  12O   0     G  0300.00   5000.00  1000.00      1
 0.10595881E+02 0.21092908E-01-0.69577177E-05 0.10872773E-08-0.66088445E-13    2
-0.27545504E+05-0.24426392E+02 0.18213568E+01 0.42758811E-01-0.20479554E-04    3
-0.19162016E-08 0.35641871E-11-0.25071838E+05 0.21374474E+02                   4
C5H10OA                 C   5H  10O   1     G  0300.00   5000.00  1000.00      1
 0.10595881E+02 0.21092908E-01-0.69577177E-05 0.10872773E-08-0.66088445E-13    2
-0.27545504E+05-0.24426392E+02 0.18213568E+01 0.42758811E-01-0.20479554E-04    3
-0.19162016E-08 0.35641871E-11-0.25071838E+05 0.21374474E+02                   4
C3H6OLY                 C   3H   6O   1     G  0300.00   5000.00  1000.00      1
 0.10595881E+02 0.21092908E-01-0.69577177E-05 0.10872773E-08-0.66088445E-13    2
-0.27545504E+05-0.24426392E+02 0.18213568E+01 0.42758811E-01-0.20479554E-04    3
-0.19162016E-08 0.35641871E-11-0.25071838E+05 0.21374474E+02                   4
C3H6O2PY                C   3H   6O   2     G  0300.00   5000.00  1000.00      1
 0.10595881E+02 0.21092908E-01-0.69577177E-05 0.10872773E-08-0.66088445E-13    2
-0.27545504E+05-0.24426392E+02 0.18213568E+01 0.42758811E-01-0.20479554E-04    3
-0.19162016E-08 0.35641871E-11-0.25071838E+05 0.21374474E+02                   4
C4H6OAY                 C   4H   6O   1     G  0300.00   5000.00  1000.00      1
 0.10595881E+02 0.21092908E-01-0.69577177E-05 0.10872773E-08-0.66088445E-13    2
-0.27545504E+05-0.24426392E+02 0.18213568E+01 0.42758811E-01-0.20479554E-04    3
-0.19162016E-08 0.35641871E-11-0.25071838E+05 0.21374474E+02                   4
C4H8OLY                 C   4H   8O   1     G  0300.00   5000.00  1000.00      1
 0.10595881E+02 0.21092908E-01-0.69577177E-05 0.10872773E-08-0.66088445E-13    2
-0.27545504E+05-0.24426392E+02 0.18213568E+01 0.42758811E-01-0.20479554E-04    3
-0.19162016E-08 0.35641871E-11-0.25071838E+05 0.21374474E+02                   4
C6H10Y2                 C   6H  10O   0     G  0300.00   5000.00  1000.00      1
 0.10595881E+02 0.21092908E-01-0.69577177E-05 0.10872773E-08-0.66088445E-13    2
-0.27545504E+05-0.24426392E+02 0.18213568E+01 0.42758811E-01-0.20479554E-04    3
-0.19162016E-08 0.35641871E-11-0.25071838E+05 0.21374474E+02                   4
C7H12Y2                 C   7H  12O   0     G  0300.00   5000.00  1000.00      1
 0.10595881E+02 0.21092908E-01-0.69577177E-05 0.10872773E-08-0.66088445E-13    2
-0.27545504E+05-0.24426392E+02 0.18213568E+01 0.42758811E-01-0.20479554E-04    3
-0.19162016E-08 0.35641871E-11-0.25071838E+05 0.21374474E+02                   4
C4H8O2PY                C   4H   8O   2     G  0300.00   5000.00  1000.00      1
 0.10595881E+02 0.21092908E-01-0.69577177E-05 0.10872773E-08-0.66088445E-13    2
-0.27545504E+05-0.24426392E+02 0.18213568E+01 0.42758811E-01-0.20479554E-04    3
-0.19162016E-08 0.35641871E-11-0.25071838E+05 0.21374474E+02                   4
C5H8OAY                 C   5H   8O   1     G  0300.00   5000.00  1000.00      1
 0.10595881E+02 0.21092908E-01-0.69577177E-05 0.10872773E-08-0.66088445E-13    2
-0.27545504E+05-0.24426392E+02 0.18213568E+01 0.42758811E-01-0.20479554E-04    3
-0.19162016E-08 0.35641871E-11-0.25071838E+05 0.21374474E+02                   4
C5H10OLY                C   5H  10O   1     G  0300.00   5000.00  1000.00      1
 0.10595881E+02 0.21092908E-01-0.69577177E-05 0.10872773E-08-0.66088445E-13    2
-0.27545504E+05-0.24426392E+02 0.18213568E+01 0.42758811E-01-0.20479554E-04    3
-0.19162016E-08 0.35641871E-11-0.25071838E+05 0.21374474E+02                   4
C8H14Y2                 C   8H  14O   0     G  0300.00   5000.00  1000.00      1
 0.10595881E+02 0.21092908E-01-0.69577177E-05 0.10872773E-08-0.66088445E-13    2
-0.27545504E+05-0.24426392E+02 0.18213568E+01 0.42758811E-01-0.20479554E-04    3
-0.19162016E-08 0.35641871E-11-0.25071838E+05 0.21374474E+02                   4
C2H4OE#3                C   2H   4O   1     G  0300.00   5000.00  1000.00      1
 0.43148279E+01 0.13877206E-01-0.51784232E-05 0.88229646E-09-0.56921298E-13    2
-0.86852227E+04-0.43943405E+00-0.92033523E+00 0.26421962E-01-0.13407433E-04    3
 0.31399369E-09 0.14228568E-11-0.71333140E+04 0.27113031E+02                   4
C3H6OE#3                C   3H   6O   1     G  0300.00   5000.00  1000.00      1
 0.71031427E+01 0.18753586E-01-0.67436472E-05 0.11200114E-08-0.71012281E-13    2
-0.15019154E+05-0.13339043E+02 0.74423306E-01 0.35190679E-01-0.25911300E-04    3
 0.17298602E-07-0.65269183E-11-0.12573230E+05 0.24581474E+02                   4
C3H6OE#4                C   3H   6O   1     G  0300.00   5000.00  1000.00      1
 0.41926983E+00 0.32915182E-01-0.14498929E-04 0.27762874E-08-0.19458094E-12    2
-0.11861491E+05 0.19367895E+02 0.42862228E+00 0.19593410E-01 0.25290266E-04    3
-0.38973763E-07 0.15062649E-10-0.11086957E+05 0.22832840E+02                   4